  *A distribution linear circuit for line 14 segment 16.
Vin1 TDvn1a1 0 AC 1

Rin1 TDvn1a1 TDn1a1 10

Rs2 TDvn2a1 0 0.1
Rs3 TDvn3a1 0 0.1
Rs4 TDvn4a1 0 0.1
Rs5 TDvn5a1 0 0.1
Rs6 TDvn6a1 0 0.1
Rs7 TDvn7a1 0 0.1
Rs8 TDvn8a1 0 0.1
Rs9 TDvn9a1 0 0.1
Rs10 TDvn10a1 0 0.1
Rs11 TDvn11a1 0 0.1
Rs12 TDvn12a1 0 0.1

Rgndg TDnga1 0 1
Rgnd2 TDn2a1 0 10
Rgnd3 TDn3a1 0 10
Rgnd4 TDn4a1 0 10
Rgnd5 TDn5a1 0 10
Rgnd6 TDn6a1 0 10
Rgnd7 TDn7a1 0 10
Rgnd8 TDn8a1 0 10
Rgnd9 TDn9a1 0 10
Rgnd10 TDn10a1 0 10
Rgnd11 TDn11a1 0 10
Rgnd12 TDn12a1 0 10
Rgndv TDnva1 0 1

RRR TDnga9 TDnva9 1
Cout1 TDn1a9 TDnga9 0.1p
Cout2 TDn2a9 TDnga9 0.1p
Cout3 TDn3a9 TDnga9 0.1p
Cout4 TDn4a9 TDnga9 0.1p
Cout5 TDn5a9 TDnga9 0.1p
Cout6 TDn6a9 TDnga9 0.1p
Cout7 TDn7a9 TDnga9 0.1p
Cout8 TDn8a9 TDnga9 0.1p
Cout9 TDn9a9 TDnga9 0.1p
Cout10 TDn10a9 TDnga9 0.1p
Cout11 TDn11a9 TDnga9 0.1p
Cout12 TDn12a9 TDnga9 0.1p

X1 TDnga1 TDnga9 TDn1a1 TDn1a9 TDn2a1 TDn2a9 TDn3a1 TDn3a9 TDn4a1 TDn4a9 TDn5a1 TDn5a9 TDn6a1 TDn6a9 TDn7a1 TDn7a9 TDn8a1 TDn8a9 TDn9a1 TDn9a9 TDn10a1 TDn10a9 TDn11a1 TDn11a9 TDn12a1 TDn12a9 TDnva1 TDnva9 intercon
.SUBCKT intercon TDnga1 TDnga33 TDn1a1 TDn1a33 TDn2a1 TDn2a33 TDn3a1 TDn3a33 TDn4a1 TDn4a33 TDn5a1 TDn5a33 TDn6a1 TDn6a33 TDn7a1 TDn7a33 TDn8a1 TDn8a33 TDn9a1 TDn9a33 TDn10a1 TDn10a33 TDn11a1 TDn11a33 TDn12a1 TDn12a33 TDnva1 TDnva33

Rnga1 TDnga1 TDnga2 2
Rnga2 TDnga3 TDnga4 2
Rnga3 TDnga5 TDnga6 2
Rnga4 TDnga7 TDnga8 2
Rnga5 TDnga9 TDnga10 2
Rnga6 TDnga11 TDnga12 2
Rnga7 TDnga13 TDnga14 2
Rnga8 TDnga15 TDnga16 2
Rnga9 TDnga17 TDnga18 2
Rnga10 TDnga19 TDnga20 2
Rnga11 TDnga21 TDnga22 2
Rnga12 TDnga23 TDnga24 2
Rnga13 TDnga25 TDnga26 2
Rnga14 TDnga27 TDnga28 2
Rnga15 TDnga29 TDnga30 2
Rnga16 TDnga31 TDnga32 2
Rn1a1 TDn1a1 TDn1a2 2
Rn1a2 TDn1a3 TDn1a4 2
Rn1a3 TDn1a5 TDn1a6 2
Rn1a4 TDn1a7 TDn1a8 2
Rn1a5 TDn1a9 TDn1a10 2
Rn1a6 TDn1a11 TDn1a12 2
Rn1a7 TDn1a13 TDn1a14 2
Rn1a8 TDn1a15 TDn1a16 2
Rn1a9 TDn1a17 TDn1a18 2
Rn1a10 TDn1a19 TDn1a20 2
Rn1a11 TDn1a21 TDn1a22 2
Rn1a12 TDn1a23 TDn1a24 2
Rn1a13 TDn1a25 TDn1a26 2
Rn1a14 TDn1a27 TDn1a28 2
Rn1a15 TDn1a29 TDn1a30 2
Rn1a16 TDn1a31 TDn1a32 2
Rn2a1 TDn2a1 TDn2a2 2
Rn2a2 TDn2a3 TDn2a4 2
Rn2a3 TDn2a5 TDn2a6 2
Rn2a4 TDn2a7 TDn2a8 2
Rn2a5 TDn2a9 TDn2a10 2
Rn2a6 TDn2a11 TDn2a12 2
Rn2a7 TDn2a13 TDn2a14 2
Rn2a8 TDn2a15 TDn2a16 2
Rn2a9 TDn2a17 TDn2a18 2
Rn2a10 TDn2a19 TDn2a20 2
Rn2a11 TDn2a21 TDn2a22 2
Rn2a12 TDn2a23 TDn2a24 2
Rn2a13 TDn2a25 TDn2a26 2
Rn2a14 TDn2a27 TDn2a28 2
Rn2a15 TDn2a29 TDn2a30 2
Rn2a16 TDn2a31 TDn2a32 2
Rn3a1 TDn3a1 TDn3a2 2
Rn3a2 TDn3a3 TDn3a4 2
Rn3a3 TDn3a5 TDn3a6 2
Rn3a4 TDn3a7 TDn3a8 2
Rn3a5 TDn3a9 TDn3a10 2
Rn3a6 TDn3a11 TDn3a12 2
Rn3a7 TDn3a13 TDn3a14 2
Rn3a8 TDn3a15 TDn3a16 2
Rn3a9 TDn3a17 TDn3a18 2
Rn3a10 TDn3a19 TDn3a20 2
Rn3a11 TDn3a21 TDn3a22 2
Rn3a12 TDn3a23 TDn3a24 2
Rn3a13 TDn3a25 TDn3a26 2
Rn3a14 TDn3a27 TDn3a28 2
Rn3a15 TDn3a29 TDn3a30 2
Rn3a16 TDn3a31 TDn3a32 2
Rn4a1 TDn4a1 TDn4a2 2
Rn4a2 TDn4a3 TDn4a4 2
Rn4a3 TDn4a5 TDn4a6 2
Rn4a4 TDn4a7 TDn4a8 2
Rn4a5 TDn4a9 TDn4a10 2
Rn4a6 TDn4a11 TDn4a12 2
Rn4a7 TDn4a13 TDn4a14 2
Rn4a8 TDn4a15 TDn4a16 2
Rn4a9 TDn4a17 TDn4a18 2
Rn4a10 TDn4a19 TDn4a20 2
Rn4a11 TDn4a21 TDn4a22 2
Rn4a12 TDn4a23 TDn4a24 2
Rn4a13 TDn4a25 TDn4a26 2
Rn4a14 TDn4a27 TDn4a28 2
Rn4a15 TDn4a29 TDn4a30 2
Rn4a16 TDn4a31 TDn4a32 2
Rn5a1 TDn5a1 TDn5a2 2
Rn5a2 TDn5a3 TDn5a4 2
Rn5a3 TDn5a5 TDn5a6 2
Rn5a4 TDn5a7 TDn5a8 2
Rn5a5 TDn5a9 TDn5a10 2
Rn5a6 TDn5a11 TDn5a12 2
Rn5a7 TDn5a13 TDn5a14 2
Rn5a8 TDn5a15 TDn5a16 2
Rn5a9 TDn5a17 TDn5a18 2
Rn5a10 TDn5a19 TDn5a20 2
Rn5a11 TDn5a21 TDn5a22 2
Rn5a12 TDn5a23 TDn5a24 2
Rn5a13 TDn5a25 TDn5a26 2
Rn5a14 TDn5a27 TDn5a28 2
Rn5a15 TDn5a29 TDn5a30 2
Rn5a16 TDn5a31 TDn5a32 2
Rn6a1 TDn6a1 TDn6a2 2
Rn6a2 TDn6a3 TDn6a4 2
Rn6a3 TDn6a5 TDn6a6 2
Rn6a4 TDn6a7 TDn6a8 2
Rn6a5 TDn6a9 TDn6a10 2
Rn6a6 TDn6a11 TDn6a12 2
Rn6a7 TDn6a13 TDn6a14 2
Rn6a8 TDn6a15 TDn6a16 2
Rn6a9 TDn6a17 TDn6a18 2
Rn6a10 TDn6a19 TDn6a20 2
Rn6a11 TDn6a21 TDn6a22 2
Rn6a12 TDn6a23 TDn6a24 2
Rn6a13 TDn6a25 TDn6a26 2
Rn6a14 TDn6a27 TDn6a28 2
Rn6a15 TDn6a29 TDn6a30 2
Rn6a16 TDn6a31 TDn6a32 2
Rn7a1 TDn7a1 TDn7a2 2
Rn7a2 TDn7a3 TDn7a4 2
Rn7a3 TDn7a5 TDn7a6 2
Rn7a4 TDn7a7 TDn7a8 2
Rn7a5 TDn7a9 TDn7a10 2
Rn7a6 TDn7a11 TDn7a12 2
Rn7a7 TDn7a13 TDn7a14 2
Rn7a8 TDn7a15 TDn7a16 2
Rn7a9 TDn7a17 TDn7a18 2
Rn7a10 TDn7a19 TDn7a20 2
Rn7a11 TDn7a21 TDn7a22 2
Rn7a12 TDn7a23 TDn7a24 2
Rn7a13 TDn7a25 TDn7a26 2
Rn7a14 TDn7a27 TDn7a28 2
Rn7a15 TDn7a29 TDn7a30 2
Rn7a16 TDn7a31 TDn7a32 2
Rn8a1 TDn8a1 TDn8a2 2
Rn8a2 TDn8a3 TDn8a4 2
Rn8a3 TDn8a5 TDn8a6 2
Rn8a4 TDn8a7 TDn8a8 2
Rn8a5 TDn8a9 TDn8a10 2
Rn8a6 TDn8a11 TDn8a12 2
Rn8a7 TDn8a13 TDn8a14 2
Rn8a8 TDn8a15 TDn8a16 2
Rn8a9 TDn8a17 TDn8a18 2
Rn8a10 TDn8a19 TDn8a20 2
Rn8a11 TDn8a21 TDn8a22 2
Rn8a12 TDn8a23 TDn8a24 2
Rn8a13 TDn8a25 TDn8a26 2
Rn8a14 TDn8a27 TDn8a28 2
Rn8a15 TDn8a29 TDn8a30 2
Rn8a16 TDn8a31 TDn8a32 2
Rn9a1 TDn9a1 TDn9a2 2
Rn9a2 TDn9a3 TDn9a4 2
Rn9a3 TDn9a5 TDn9a6 2
Rn9a4 TDn9a7 TDn9a8 2
Rn9a5 TDn9a9 TDn9a10 2
Rn9a6 TDn9a11 TDn9a12 2
Rn9a7 TDn9a13 TDn9a14 2
Rn9a8 TDn9a15 TDn9a16 2
Rn9a9 TDn9a17 TDn9a18 2
Rn9a10 TDn9a19 TDn9a20 2
Rn9a11 TDn9a21 TDn9a22 2
Rn9a12 TDn9a23 TDn9a24 2
Rn9a13 TDn9a25 TDn9a26 2
Rn9a14 TDn9a27 TDn9a28 2
Rn9a15 TDn9a29 TDn9a30 2
Rn9a16 TDn9a31 TDn9a32 2
Rn10a1 TDn10a1 TDn10a2 2
Rn10a2 TDn10a3 TDn10a4 2
Rn10a3 TDn10a5 TDn10a6 2
Rn10a4 TDn10a7 TDn10a8 2
Rn10a5 TDn10a9 TDn10a10 2
Rn10a6 TDn10a11 TDn10a12 2
Rn10a7 TDn10a13 TDn10a14 2
Rn10a8 TDn10a15 TDn10a16 2
Rn10a9 TDn10a17 TDn10a18 2
Rn10a10 TDn10a19 TDn10a20 2
Rn10a11 TDn10a21 TDn10a22 2
Rn10a12 TDn10a23 TDn10a24 2
Rn10a13 TDn10a25 TDn10a26 2
Rn10a14 TDn10a27 TDn10a28 2
Rn10a15 TDn10a29 TDn10a30 2
Rn10a16 TDn10a31 TDn10a32 2
Rn11a1 TDn11a1 TDn11a2 2
Rn11a2 TDn11a3 TDn11a4 2
Rn11a3 TDn11a5 TDn11a6 2
Rn11a4 TDn11a7 TDn11a8 2
Rn11a5 TDn11a9 TDn11a10 2
Rn11a6 TDn11a11 TDn11a12 2
Rn11a7 TDn11a13 TDn11a14 2
Rn11a8 TDn11a15 TDn11a16 2
Rn11a9 TDn11a17 TDn11a18 2
Rn11a10 TDn11a19 TDn11a20 2
Rn11a11 TDn11a21 TDn11a22 2
Rn11a12 TDn11a23 TDn11a24 2
Rn11a13 TDn11a25 TDn11a26 2
Rn11a14 TDn11a27 TDn11a28 2
Rn11a15 TDn11a29 TDn11a30 2
Rn11a16 TDn11a31 TDn11a32 2
Rn12a1 TDn12a1 TDn12a2 2
Rn12a2 TDn12a3 TDn12a4 2
Rn12a3 TDn12a5 TDn12a6 2
Rn12a4 TDn12a7 TDn12a8 2
Rn12a5 TDn12a9 TDn12a10 2
Rn12a6 TDn12a11 TDn12a12 2
Rn12a7 TDn12a13 TDn12a14 2
Rn12a8 TDn12a15 TDn12a16 2
Rn12a9 TDn12a17 TDn12a18 2
Rn12a10 TDn12a19 TDn12a20 2
Rn12a11 TDn12a21 TDn12a22 2
Rn12a12 TDn12a23 TDn12a24 2
Rn12a13 TDn12a25 TDn12a26 2
Rn12a14 TDn12a27 TDn12a28 2
Rn12a15 TDn12a29 TDn12a30 2
Rn12a16 TDn12a31 TDn12a32 2
Rnva1 TDnva1 TDnva2 2
Rnva2 TDnva3 TDnva4 2
Rnva3 TDnva5 TDnva6 2
Rnva4 TDnva7 TDnva8 2
Rnva5 TDnva9 TDnva10 2
Rnva6 TDnva11 TDnva12 2
Rnva7 TDnva13 TDnva14 2
Rnva8 TDnva15 TDnva16 2
Rnva9 TDnva17 TDnva18 2
Rnva10 TDnva19 TDnva20 2
Rnva11 TDnva21 TDnva22 2
Rnva12 TDnva23 TDnva24 2
Rnva13 TDnva25 TDnva26 2
Rnva14 TDnva27 TDnva28 2
Rnva15 TDnva29 TDnva30 2
Rnva16 TDnva31 TDnva32 2
Lnga1 TDnga2 TDnga3 1e-9
Lnga2 TDnga4 TDnga5 1e-9
Lnga3 TDnga6 TDnga7 1e-9
Lnga4 TDnga8 TDnga9 1e-9
Lnga5 TDnga10 TDnga11 1e-9
Lnga6 TDnga12 TDnga13 1e-9
Lnga7 TDnga14 TDnga15 1e-9
Lnga8 TDnga16 TDnga17 1e-9
Lnga9 TDnga18 TDnga19 1e-9
Lnga10 TDnga20 TDnga21 1e-9
Lnga11 TDnga22 TDnga23 1e-9
Lnga12 TDnga24 TDnga25 1e-9
Lnga13 TDnga26 TDnga27 1e-9
Lnga14 TDnga28 TDnga29 1e-9
Lnga15 TDnga30 TDnga31 1e-9
Lnga16 TDnga32 TDnga33 1e-9
Ln1a1 TDn1a2 TDn1a3 1e-9
Ln1a2 TDn1a4 TDn1a5 1e-9
Ln1a3 TDn1a6 TDn1a7 1e-9
Ln1a4 TDn1a8 TDn1a9 1e-9
Ln1a5 TDn1a10 TDn1a11 1e-9
Ln1a6 TDn1a12 TDn1a13 1e-9
Ln1a7 TDn1a14 TDn1a15 1e-9
Ln1a8 TDn1a16 TDn1a17 1e-9
Ln1a9 TDn1a18 TDn1a19 1e-9
Ln1a10 TDn1a20 TDn1a21 1e-9
Ln1a11 TDn1a22 TDn1a23 1e-9
Ln1a12 TDn1a24 TDn1a25 1e-9
Ln1a13 TDn1a26 TDn1a27 1e-9
Ln1a14 TDn1a28 TDn1a29 1e-9
Ln1a15 TDn1a30 TDn1a31 1e-9
Ln1a16 TDn1a32 TDn1a33 1e-9
Ln2a1 TDn2a2 TDn2a3 1e-9
Ln2a2 TDn2a4 TDn2a5 1e-9
Ln2a3 TDn2a6 TDn2a7 1e-9
Ln2a4 TDn2a8 TDn2a9 1e-9
Ln2a5 TDn2a10 TDn2a11 1e-9
Ln2a6 TDn2a12 TDn2a13 1e-9
Ln2a7 TDn2a14 TDn2a15 1e-9
Ln2a8 TDn2a16 TDn2a17 1e-9
Ln2a9 TDn2a18 TDn2a19 1e-9
Ln2a10 TDn2a20 TDn2a21 1e-9
Ln2a11 TDn2a22 TDn2a23 1e-9
Ln2a12 TDn2a24 TDn2a25 1e-9
Ln2a13 TDn2a26 TDn2a27 1e-9
Ln2a14 TDn2a28 TDn2a29 1e-9
Ln2a15 TDn2a30 TDn2a31 1e-9
Ln2a16 TDn2a32 TDn2a33 1e-9
Ln3a1 TDn3a2 TDn3a3 1e-9
Ln3a2 TDn3a4 TDn3a5 1e-9
Ln3a3 TDn3a6 TDn3a7 1e-9
Ln3a4 TDn3a8 TDn3a9 1e-9
Ln3a5 TDn3a10 TDn3a11 1e-9
Ln3a6 TDn3a12 TDn3a13 1e-9
Ln3a7 TDn3a14 TDn3a15 1e-9
Ln3a8 TDn3a16 TDn3a17 1e-9
Ln3a9 TDn3a18 TDn3a19 1e-9
Ln3a10 TDn3a20 TDn3a21 1e-9
Ln3a11 TDn3a22 TDn3a23 1e-9
Ln3a12 TDn3a24 TDn3a25 1e-9
Ln3a13 TDn3a26 TDn3a27 1e-9
Ln3a14 TDn3a28 TDn3a29 1e-9
Ln3a15 TDn3a30 TDn3a31 1e-9
Ln3a16 TDn3a32 TDn3a33 1e-9
Ln4a1 TDn4a2 TDn4a3 1e-9
Ln4a2 TDn4a4 TDn4a5 1e-9
Ln4a3 TDn4a6 TDn4a7 1e-9
Ln4a4 TDn4a8 TDn4a9 1e-9
Ln4a5 TDn4a10 TDn4a11 1e-9
Ln4a6 TDn4a12 TDn4a13 1e-9
Ln4a7 TDn4a14 TDn4a15 1e-9
Ln4a8 TDn4a16 TDn4a17 1e-9
Ln4a9 TDn4a18 TDn4a19 1e-9
Ln4a10 TDn4a20 TDn4a21 1e-9
Ln4a11 TDn4a22 TDn4a23 1e-9
Ln4a12 TDn4a24 TDn4a25 1e-9
Ln4a13 TDn4a26 TDn4a27 1e-9
Ln4a14 TDn4a28 TDn4a29 1e-9
Ln4a15 TDn4a30 TDn4a31 1e-9
Ln4a16 TDn4a32 TDn4a33 1e-9
Ln5a1 TDn5a2 TDn5a3 1e-9
Ln5a2 TDn5a4 TDn5a5 1e-9
Ln5a3 TDn5a6 TDn5a7 1e-9
Ln5a4 TDn5a8 TDn5a9 1e-9
Ln5a5 TDn5a10 TDn5a11 1e-9
Ln5a6 TDn5a12 TDn5a13 1e-9
Ln5a7 TDn5a14 TDn5a15 1e-9
Ln5a8 TDn5a16 TDn5a17 1e-9
Ln5a9 TDn5a18 TDn5a19 1e-9
Ln5a10 TDn5a20 TDn5a21 1e-9
Ln5a11 TDn5a22 TDn5a23 1e-9
Ln5a12 TDn5a24 TDn5a25 1e-9
Ln5a13 TDn5a26 TDn5a27 1e-9
Ln5a14 TDn5a28 TDn5a29 1e-9
Ln5a15 TDn5a30 TDn5a31 1e-9
Ln5a16 TDn5a32 TDn5a33 1e-9
Ln6a1 TDn6a2 TDn6a3 1e-9
Ln6a2 TDn6a4 TDn6a5 1e-9
Ln6a3 TDn6a6 TDn6a7 1e-9
Ln6a4 TDn6a8 TDn6a9 1e-9
Ln6a5 TDn6a10 TDn6a11 1e-9
Ln6a6 TDn6a12 TDn6a13 1e-9
Ln6a7 TDn6a14 TDn6a15 1e-9
Ln6a8 TDn6a16 TDn6a17 1e-9
Ln6a9 TDn6a18 TDn6a19 1e-9
Ln6a10 TDn6a20 TDn6a21 1e-9
Ln6a11 TDn6a22 TDn6a23 1e-9
Ln6a12 TDn6a24 TDn6a25 1e-9
Ln6a13 TDn6a26 TDn6a27 1e-9
Ln6a14 TDn6a28 TDn6a29 1e-9
Ln6a15 TDn6a30 TDn6a31 1e-9
Ln6a16 TDn6a32 TDn6a33 1e-9
Ln7a1 TDn7a2 TDn7a3 1e-9
Ln7a2 TDn7a4 TDn7a5 1e-9
Ln7a3 TDn7a6 TDn7a7 1e-9
Ln7a4 TDn7a8 TDn7a9 1e-9
Ln7a5 TDn7a10 TDn7a11 1e-9
Ln7a6 TDn7a12 TDn7a13 1e-9
Ln7a7 TDn7a14 TDn7a15 1e-9
Ln7a8 TDn7a16 TDn7a17 1e-9
Ln7a9 TDn7a18 TDn7a19 1e-9
Ln7a10 TDn7a20 TDn7a21 1e-9
Ln7a11 TDn7a22 TDn7a23 1e-9
Ln7a12 TDn7a24 TDn7a25 1e-9
Ln7a13 TDn7a26 TDn7a27 1e-9
Ln7a14 TDn7a28 TDn7a29 1e-9
Ln7a15 TDn7a30 TDn7a31 1e-9
Ln7a16 TDn7a32 TDn7a33 1e-9
Ln8a1 TDn8a2 TDn8a3 1e-9
Ln8a2 TDn8a4 TDn8a5 1e-9
Ln8a3 TDn8a6 TDn8a7 1e-9
Ln8a4 TDn8a8 TDn8a9 1e-9
Ln8a5 TDn8a10 TDn8a11 1e-9
Ln8a6 TDn8a12 TDn8a13 1e-9
Ln8a7 TDn8a14 TDn8a15 1e-9
Ln8a8 TDn8a16 TDn8a17 1e-9
Ln8a9 TDn8a18 TDn8a19 1e-9
Ln8a10 TDn8a20 TDn8a21 1e-9
Ln8a11 TDn8a22 TDn8a23 1e-9
Ln8a12 TDn8a24 TDn8a25 1e-9
Ln8a13 TDn8a26 TDn8a27 1e-9
Ln8a14 TDn8a28 TDn8a29 1e-9
Ln8a15 TDn8a30 TDn8a31 1e-9
Ln8a16 TDn8a32 TDn8a33 1e-9
Ln9a1 TDn9a2 TDn9a3 1e-9
Ln9a2 TDn9a4 TDn9a5 1e-9
Ln9a3 TDn9a6 TDn9a7 1e-9
Ln9a4 TDn9a8 TDn9a9 1e-9
Ln9a5 TDn9a10 TDn9a11 1e-9
Ln9a6 TDn9a12 TDn9a13 1e-9
Ln9a7 TDn9a14 TDn9a15 1e-9
Ln9a8 TDn9a16 TDn9a17 1e-9
Ln9a9 TDn9a18 TDn9a19 1e-9
Ln9a10 TDn9a20 TDn9a21 1e-9
Ln9a11 TDn9a22 TDn9a23 1e-9
Ln9a12 TDn9a24 TDn9a25 1e-9
Ln9a13 TDn9a26 TDn9a27 1e-9
Ln9a14 TDn9a28 TDn9a29 1e-9
Ln9a15 TDn9a30 TDn9a31 1e-9
Ln9a16 TDn9a32 TDn9a33 1e-9
Ln10a1 TDn10a2 TDn10a3 1e-9
Ln10a2 TDn10a4 TDn10a5 1e-9
Ln10a3 TDn10a6 TDn10a7 1e-9
Ln10a4 TDn10a8 TDn10a9 1e-9
Ln10a5 TDn10a10 TDn10a11 1e-9
Ln10a6 TDn10a12 TDn10a13 1e-9
Ln10a7 TDn10a14 TDn10a15 1e-9
Ln10a8 TDn10a16 TDn10a17 1e-9
Ln10a9 TDn10a18 TDn10a19 1e-9
Ln10a10 TDn10a20 TDn10a21 1e-9
Ln10a11 TDn10a22 TDn10a23 1e-9
Ln10a12 TDn10a24 TDn10a25 1e-9
Ln10a13 TDn10a26 TDn10a27 1e-9
Ln10a14 TDn10a28 TDn10a29 1e-9
Ln10a15 TDn10a30 TDn10a31 1e-9
Ln10a16 TDn10a32 TDn10a33 1e-9
Ln11a1 TDn11a2 TDn11a3 1e-9
Ln11a2 TDn11a4 TDn11a5 1e-9
Ln11a3 TDn11a6 TDn11a7 1e-9
Ln11a4 TDn11a8 TDn11a9 1e-9
Ln11a5 TDn11a10 TDn11a11 1e-9
Ln11a6 TDn11a12 TDn11a13 1e-9
Ln11a7 TDn11a14 TDn11a15 1e-9
Ln11a8 TDn11a16 TDn11a17 1e-9
Ln11a9 TDn11a18 TDn11a19 1e-9
Ln11a10 TDn11a20 TDn11a21 1e-9
Ln11a11 TDn11a22 TDn11a23 1e-9
Ln11a12 TDn11a24 TDn11a25 1e-9
Ln11a13 TDn11a26 TDn11a27 1e-9
Ln11a14 TDn11a28 TDn11a29 1e-9
Ln11a15 TDn11a30 TDn11a31 1e-9
Ln11a16 TDn11a32 TDn11a33 1e-9
Ln12a1 TDn12a2 TDn12a3 1e-9
Ln12a2 TDn12a4 TDn12a5 1e-9
Ln12a3 TDn12a6 TDn12a7 1e-9
Ln12a4 TDn12a8 TDn12a9 1e-9
Ln12a5 TDn12a10 TDn12a11 1e-9
Ln12a6 TDn12a12 TDn12a13 1e-9
Ln12a7 TDn12a14 TDn12a15 1e-9
Ln12a8 TDn12a16 TDn12a17 1e-9
Ln12a9 TDn12a18 TDn12a19 1e-9
Ln12a10 TDn12a20 TDn12a21 1e-9
Ln12a11 TDn12a22 TDn12a23 1e-9
Ln12a12 TDn12a24 TDn12a25 1e-9
Ln12a13 TDn12a26 TDn12a27 1e-9
Ln12a14 TDn12a28 TDn12a29 1e-9
Ln12a15 TDn12a30 TDn12a31 1e-9
Ln12a16 TDn12a32 TDn12a33 1e-9
Lnva1 TDnva2 TDnva3 1e-9
Lnva2 TDnva4 TDnva5 1e-9
Lnva3 TDnva6 TDnva7 1e-9
Lnva4 TDnva8 TDnva9 1e-9
Lnva5 TDnva10 TDnva11 1e-9
Lnva6 TDnva12 TDnva13 1e-9
Lnva7 TDnva14 TDnva15 1e-9
Lnva8 TDnva16 TDnva17 1e-9
Lnva9 TDnva18 TDnva19 1e-9
Lnva10 TDnva20 TDnva21 1e-9
Lnva11 TDnva22 TDnva23 1e-9
Lnva12 TDnva24 TDnva25 1e-9
Lnva13 TDnva26 TDnva27 1e-9
Lnva14 TDnva28 TDnva29 1e-9
Lnva15 TDnva30 TDnva31 1e-9
Lnva16 TDnva32 TDnva33 1e-9
Kngan1a1 Lnga1 Ln1a1 0.8
Kngan1a2 Lnga2 Ln1a2 0.8
Kngan1a3 Lnga3 Ln1a3 0.8
Kngan1a4 Lnga4 Ln1a4 0.8
Kngan1a5 Lnga5 Ln1a5 0.8
Kngan1a6 Lnga6 Ln1a6 0.8
Kngan1a7 Lnga7 Ln1a7 0.8
Kngan1a8 Lnga8 Ln1a8 0.8
Kngan1a9 Lnga9 Ln1a9 0.8
Kngan1a10 Lnga10 Ln1a10 0.8
Kngan1a11 Lnga11 Ln1a11 0.8
Kngan1a12 Lnga12 Ln1a12 0.8
Kngan1a13 Lnga13 Ln1a13 0.8
Kngan1a14 Lnga14 Ln1a14 0.8
Kngan1a15 Lnga15 Ln1a15 0.8
Kngan1a16 Lnga16 Ln1a16 0.8
Kngan2a1 Lnga1 Ln2a1 0.7
Kngan2a2 Lnga2 Ln2a2 0.7
Kngan2a3 Lnga3 Ln2a3 0.7
Kngan2a4 Lnga4 Ln2a4 0.7
Kngan2a5 Lnga5 Ln2a5 0.7
Kngan2a6 Lnga6 Ln2a6 0.7
Kngan2a7 Lnga7 Ln2a7 0.7
Kngan2a8 Lnga8 Ln2a8 0.7
Kngan2a9 Lnga9 Ln2a9 0.7
Kngan2a10 Lnga10 Ln2a10 0.7
Kngan2a11 Lnga11 Ln2a11 0.7
Kngan2a12 Lnga12 Ln2a12 0.7
Kngan2a13 Lnga13 Ln2a13 0.7
Kngan2a14 Lnga14 Ln2a14 0.7
Kngan2a15 Lnga15 Ln2a15 0.7
Kngan2a16 Lnga16 Ln2a16 0.7
Kngan3a1 Lnga1 Ln3a1 0.7
Kngan3a2 Lnga2 Ln3a2 0.7
Kngan3a3 Lnga3 Ln3a3 0.7
Kngan3a4 Lnga4 Ln3a4 0.7
Kngan3a5 Lnga5 Ln3a5 0.7
Kngan3a6 Lnga6 Ln3a6 0.7
Kngan3a7 Lnga7 Ln3a7 0.7
Kngan3a8 Lnga8 Ln3a8 0.7
Kngan3a9 Lnga9 Ln3a9 0.7
Kngan3a10 Lnga10 Ln3a10 0.7
Kngan3a11 Lnga11 Ln3a11 0.7
Kngan3a12 Lnga12 Ln3a12 0.7
Kngan3a13 Lnga13 Ln3a13 0.7
Kngan3a14 Lnga14 Ln3a14 0.7
Kngan3a15 Lnga15 Ln3a15 0.7
Kngan3a16 Lnga16 Ln3a16 0.7
Kngan4a1 Lnga1 Ln4a1 0.6
Kngan4a2 Lnga2 Ln4a2 0.6
Kngan4a3 Lnga3 Ln4a3 0.6
Kngan4a4 Lnga4 Ln4a4 0.6
Kngan4a5 Lnga5 Ln4a5 0.6
Kngan4a6 Lnga6 Ln4a6 0.6
Kngan4a7 Lnga7 Ln4a7 0.6
Kngan4a8 Lnga8 Ln4a8 0.6
Kngan4a9 Lnga9 Ln4a9 0.6
Kngan4a10 Lnga10 Ln4a10 0.6
Kngan4a11 Lnga11 Ln4a11 0.6
Kngan4a12 Lnga12 Ln4a12 0.6
Kngan4a13 Lnga13 Ln4a13 0.6
Kngan4a14 Lnga14 Ln4a14 0.6
Kngan4a15 Lnga15 Ln4a15 0.6
Kngan4a16 Lnga16 Ln4a16 0.6
Kngan5a1 Lnga1 Ln5a1 0.6
Kngan5a2 Lnga2 Ln5a2 0.6
Kngan5a3 Lnga3 Ln5a3 0.6
Kngan5a4 Lnga4 Ln5a4 0.6
Kngan5a5 Lnga5 Ln5a5 0.6
Kngan5a6 Lnga6 Ln5a6 0.6
Kngan5a7 Lnga7 Ln5a7 0.6
Kngan5a8 Lnga8 Ln5a8 0.6
Kngan5a9 Lnga9 Ln5a9 0.6
Kngan5a10 Lnga10 Ln5a10 0.6
Kngan5a11 Lnga11 Ln5a11 0.6
Kngan5a12 Lnga12 Ln5a12 0.6
Kngan5a13 Lnga13 Ln5a13 0.6
Kngan5a14 Lnga14 Ln5a14 0.6
Kngan5a15 Lnga15 Ln5a15 0.6
Kngan5a16 Lnga16 Ln5a16 0.6
Kngan6a1 Lnga1 Ln6a1 0.6
Kngan6a2 Lnga2 Ln6a2 0.6
Kngan6a3 Lnga3 Ln6a3 0.6
Kngan6a4 Lnga4 Ln6a4 0.6
Kngan6a5 Lnga5 Ln6a5 0.6
Kngan6a6 Lnga6 Ln6a6 0.6
Kngan6a7 Lnga7 Ln6a7 0.6
Kngan6a8 Lnga8 Ln6a8 0.6
Kngan6a9 Lnga9 Ln6a9 0.6
Kngan6a10 Lnga10 Ln6a10 0.6
Kngan6a11 Lnga11 Ln6a11 0.6
Kngan6a12 Lnga12 Ln6a12 0.6
Kngan6a13 Lnga13 Ln6a13 0.6
Kngan6a14 Lnga14 Ln6a14 0.6
Kngan6a15 Lnga15 Ln6a15 0.6
Kngan6a16 Lnga16 Ln6a16 0.6
Kngan7a1 Lnga1 Ln7a1 0.6
Kngan7a2 Lnga2 Ln7a2 0.6
Kngan7a3 Lnga3 Ln7a3 0.6
Kngan7a4 Lnga4 Ln7a4 0.6
Kngan7a5 Lnga5 Ln7a5 0.6
Kngan7a6 Lnga6 Ln7a6 0.6
Kngan7a7 Lnga7 Ln7a7 0.6
Kngan7a8 Lnga8 Ln7a8 0.6
Kngan7a9 Lnga9 Ln7a9 0.6
Kngan7a10 Lnga10 Ln7a10 0.6
Kngan7a11 Lnga11 Ln7a11 0.6
Kngan7a12 Lnga12 Ln7a12 0.6
Kngan7a13 Lnga13 Ln7a13 0.6
Kngan7a14 Lnga14 Ln7a14 0.6
Kngan7a15 Lnga15 Ln7a15 0.6
Kngan7a16 Lnga16 Ln7a16 0.6
Kngan8a1 Lnga1 Ln8a1 0.6
Kngan8a2 Lnga2 Ln8a2 0.6
Kngan8a3 Lnga3 Ln8a3 0.6
Kngan8a4 Lnga4 Ln8a4 0.6
Kngan8a5 Lnga5 Ln8a5 0.6
Kngan8a6 Lnga6 Ln8a6 0.6
Kngan8a7 Lnga7 Ln8a7 0.6
Kngan8a8 Lnga8 Ln8a8 0.6
Kngan8a9 Lnga9 Ln8a9 0.6
Kngan8a10 Lnga10 Ln8a10 0.6
Kngan8a11 Lnga11 Ln8a11 0.6
Kngan8a12 Lnga12 Ln8a12 0.6
Kngan8a13 Lnga13 Ln8a13 0.6
Kngan8a14 Lnga14 Ln8a14 0.6
Kngan8a15 Lnga15 Ln8a15 0.6
Kngan8a16 Lnga16 Ln8a16 0.6
Kngan9a1 Lnga1 Ln9a1 0.5
Kngan9a2 Lnga2 Ln9a2 0.5
Kngan9a3 Lnga3 Ln9a3 0.5
Kngan9a4 Lnga4 Ln9a4 0.5
Kngan9a5 Lnga5 Ln9a5 0.5
Kngan9a6 Lnga6 Ln9a6 0.5
Kngan9a7 Lnga7 Ln9a7 0.5
Kngan9a8 Lnga8 Ln9a8 0.5
Kngan9a9 Lnga9 Ln9a9 0.5
Kngan9a10 Lnga10 Ln9a10 0.5
Kngan9a11 Lnga11 Ln9a11 0.5
Kngan9a12 Lnga12 Ln9a12 0.5
Kngan9a13 Lnga13 Ln9a13 0.5
Kngan9a14 Lnga14 Ln9a14 0.5
Kngan9a15 Lnga15 Ln9a15 0.5
Kngan9a16 Lnga16 Ln9a16 0.5
Kngan10a1 Lnga1 Ln10a1 0.5
Kngan10a2 Lnga2 Ln10a2 0.5
Kngan10a3 Lnga3 Ln10a3 0.5
Kngan10a4 Lnga4 Ln10a4 0.5
Kngan10a5 Lnga5 Ln10a5 0.5
Kngan10a6 Lnga6 Ln10a6 0.5
Kngan10a7 Lnga7 Ln10a7 0.5
Kngan10a8 Lnga8 Ln10a8 0.5
Kngan10a9 Lnga9 Ln10a9 0.5
Kngan10a10 Lnga10 Ln10a10 0.5
Kngan10a11 Lnga11 Ln10a11 0.5
Kngan10a12 Lnga12 Ln10a12 0.5
Kngan10a13 Lnga13 Ln10a13 0.5
Kngan10a14 Lnga14 Ln10a14 0.5
Kngan10a15 Lnga15 Ln10a15 0.5
Kngan10a16 Lnga16 Ln10a16 0.5
Kngan11a1 Lnga1 Ln11a1 0.5
Kngan11a2 Lnga2 Ln11a2 0.5
Kngan11a3 Lnga3 Ln11a3 0.5
Kngan11a4 Lnga4 Ln11a4 0.5
Kngan11a5 Lnga5 Ln11a5 0.5
Kngan11a6 Lnga6 Ln11a6 0.5
Kngan11a7 Lnga7 Ln11a7 0.5
Kngan11a8 Lnga8 Ln11a8 0.5
Kngan11a9 Lnga9 Ln11a9 0.5
Kngan11a10 Lnga10 Ln11a10 0.5
Kngan11a11 Lnga11 Ln11a11 0.5
Kngan11a12 Lnga12 Ln11a12 0.5
Kngan11a13 Lnga13 Ln11a13 0.5
Kngan11a14 Lnga14 Ln11a14 0.5
Kngan11a15 Lnga15 Ln11a15 0.5
Kngan11a16 Lnga16 Ln11a16 0.5
Kngan12a1 Lnga1 Ln12a1 0.5
Kngan12a2 Lnga2 Ln12a2 0.5
Kngan12a3 Lnga3 Ln12a3 0.5
Kngan12a4 Lnga4 Ln12a4 0.5
Kngan12a5 Lnga5 Ln12a5 0.5
Kngan12a6 Lnga6 Ln12a6 0.5
Kngan12a7 Lnga7 Ln12a7 0.5
Kngan12a8 Lnga8 Ln12a8 0.5
Kngan12a9 Lnga9 Ln12a9 0.5
Kngan12a10 Lnga10 Ln12a10 0.5
Kngan12a11 Lnga11 Ln12a11 0.5
Kngan12a12 Lnga12 Ln12a12 0.5
Kngan12a13 Lnga13 Ln12a13 0.5
Kngan12a14 Lnga14 Ln12a14 0.5
Kngan12a15 Lnga15 Ln12a15 0.5
Kngan12a16 Lnga16 Ln12a16 0.5
Knganva1 Lnga1 Lnva1 0.5
Knganva2 Lnga2 Lnva2 0.5
Knganva3 Lnga3 Lnva3 0.5
Knganva4 Lnga4 Lnva4 0.5
Knganva5 Lnga5 Lnva5 0.5
Knganva6 Lnga6 Lnva6 0.5
Knganva7 Lnga7 Lnva7 0.5
Knganva8 Lnga8 Lnva8 0.5
Knganva9 Lnga9 Lnva9 0.5
Knganva10 Lnga10 Lnva10 0.5
Knganva11 Lnga11 Lnva11 0.5
Knganva12 Lnga12 Lnva12 0.5
Knganva13 Lnga13 Lnva13 0.5
Knganva14 Lnga14 Lnva14 0.5
Knganva15 Lnga15 Lnva15 0.5
Knganva16 Lnga16 Lnva16 0.5
Kn1an2a1 Ln1a1 Ln2a1 0.8
Kn1an2a2 Ln1a2 Ln2a2 0.8
Kn1an2a3 Ln1a3 Ln2a3 0.8
Kn1an2a4 Ln1a4 Ln2a4 0.8
Kn1an2a5 Ln1a5 Ln2a5 0.8
Kn1an2a6 Ln1a6 Ln2a6 0.8
Kn1an2a7 Ln1a7 Ln2a7 0.8
Kn1an2a8 Ln1a8 Ln2a8 0.8
Kn1an2a9 Ln1a9 Ln2a9 0.8
Kn1an2a10 Ln1a10 Ln2a10 0.8
Kn1an2a11 Ln1a11 Ln2a11 0.8
Kn1an2a12 Ln1a12 Ln2a12 0.8
Kn1an2a13 Ln1a13 Ln2a13 0.8
Kn1an2a14 Ln1a14 Ln2a14 0.8
Kn1an2a15 Ln1a15 Ln2a15 0.8
Kn1an2a16 Ln1a16 Ln2a16 0.8
Kn1an3a1 Ln1a1 Ln3a1 0.7
Kn1an3a2 Ln1a2 Ln3a2 0.7
Kn1an3a3 Ln1a3 Ln3a3 0.7
Kn1an3a4 Ln1a4 Ln3a4 0.7
Kn1an3a5 Ln1a5 Ln3a5 0.7
Kn1an3a6 Ln1a6 Ln3a6 0.7
Kn1an3a7 Ln1a7 Ln3a7 0.7
Kn1an3a8 Ln1a8 Ln3a8 0.7
Kn1an3a9 Ln1a9 Ln3a9 0.7
Kn1an3a10 Ln1a10 Ln3a10 0.7
Kn1an3a11 Ln1a11 Ln3a11 0.7
Kn1an3a12 Ln1a12 Ln3a12 0.7
Kn1an3a13 Ln1a13 Ln3a13 0.7
Kn1an3a14 Ln1a14 Ln3a14 0.7
Kn1an3a15 Ln1a15 Ln3a15 0.7
Kn1an3a16 Ln1a16 Ln3a16 0.7
Kn1an4a1 Ln1a1 Ln4a1 0.7
Kn1an4a2 Ln1a2 Ln4a2 0.7
Kn1an4a3 Ln1a3 Ln4a3 0.7
Kn1an4a4 Ln1a4 Ln4a4 0.7
Kn1an4a5 Ln1a5 Ln4a5 0.7
Kn1an4a6 Ln1a6 Ln4a6 0.7
Kn1an4a7 Ln1a7 Ln4a7 0.7
Kn1an4a8 Ln1a8 Ln4a8 0.7
Kn1an4a9 Ln1a9 Ln4a9 0.7
Kn1an4a10 Ln1a10 Ln4a10 0.7
Kn1an4a11 Ln1a11 Ln4a11 0.7
Kn1an4a12 Ln1a12 Ln4a12 0.7
Kn1an4a13 Ln1a13 Ln4a13 0.7
Kn1an4a14 Ln1a14 Ln4a14 0.7
Kn1an4a15 Ln1a15 Ln4a15 0.7
Kn1an4a16 Ln1a16 Ln4a16 0.7
Kn1an5a1 Ln1a1 Ln5a1 0.6
Kn1an5a2 Ln1a2 Ln5a2 0.6
Kn1an5a3 Ln1a3 Ln5a3 0.6
Kn1an5a4 Ln1a4 Ln5a4 0.6
Kn1an5a5 Ln1a5 Ln5a5 0.6
Kn1an5a6 Ln1a6 Ln5a6 0.6
Kn1an5a7 Ln1a7 Ln5a7 0.6
Kn1an5a8 Ln1a8 Ln5a8 0.6
Kn1an5a9 Ln1a9 Ln5a9 0.6
Kn1an5a10 Ln1a10 Ln5a10 0.6
Kn1an5a11 Ln1a11 Ln5a11 0.6
Kn1an5a12 Ln1a12 Ln5a12 0.6
Kn1an5a13 Ln1a13 Ln5a13 0.6
Kn1an5a14 Ln1a14 Ln5a14 0.6
Kn1an5a15 Ln1a15 Ln5a15 0.6
Kn1an5a16 Ln1a16 Ln5a16 0.6
Kn1an6a1 Ln1a1 Ln6a1 0.6
Kn1an6a2 Ln1a2 Ln6a2 0.6
Kn1an6a3 Ln1a3 Ln6a3 0.6
Kn1an6a4 Ln1a4 Ln6a4 0.6
Kn1an6a5 Ln1a5 Ln6a5 0.6
Kn1an6a6 Ln1a6 Ln6a6 0.6
Kn1an6a7 Ln1a7 Ln6a7 0.6
Kn1an6a8 Ln1a8 Ln6a8 0.6
Kn1an6a9 Ln1a9 Ln6a9 0.6
Kn1an6a10 Ln1a10 Ln6a10 0.6
Kn1an6a11 Ln1a11 Ln6a11 0.6
Kn1an6a12 Ln1a12 Ln6a12 0.6
Kn1an6a13 Ln1a13 Ln6a13 0.6
Kn1an6a14 Ln1a14 Ln6a14 0.6
Kn1an6a15 Ln1a15 Ln6a15 0.6
Kn1an6a16 Ln1a16 Ln6a16 0.6
Kn1an7a1 Ln1a1 Ln7a1 0.6
Kn1an7a2 Ln1a2 Ln7a2 0.6
Kn1an7a3 Ln1a3 Ln7a3 0.6
Kn1an7a4 Ln1a4 Ln7a4 0.6
Kn1an7a5 Ln1a5 Ln7a5 0.6
Kn1an7a6 Ln1a6 Ln7a6 0.6
Kn1an7a7 Ln1a7 Ln7a7 0.6
Kn1an7a8 Ln1a8 Ln7a8 0.6
Kn1an7a9 Ln1a9 Ln7a9 0.6
Kn1an7a10 Ln1a10 Ln7a10 0.6
Kn1an7a11 Ln1a11 Ln7a11 0.6
Kn1an7a12 Ln1a12 Ln7a12 0.6
Kn1an7a13 Ln1a13 Ln7a13 0.6
Kn1an7a14 Ln1a14 Ln7a14 0.6
Kn1an7a15 Ln1a15 Ln7a15 0.6
Kn1an7a16 Ln1a16 Ln7a16 0.6
Kn1an8a1 Ln1a1 Ln8a1 0.6
Kn1an8a2 Ln1a2 Ln8a2 0.6
Kn1an8a3 Ln1a3 Ln8a3 0.6
Kn1an8a4 Ln1a4 Ln8a4 0.6
Kn1an8a5 Ln1a5 Ln8a5 0.6
Kn1an8a6 Ln1a6 Ln8a6 0.6
Kn1an8a7 Ln1a7 Ln8a7 0.6
Kn1an8a8 Ln1a8 Ln8a8 0.6
Kn1an8a9 Ln1a9 Ln8a9 0.6
Kn1an8a10 Ln1a10 Ln8a10 0.6
Kn1an8a11 Ln1a11 Ln8a11 0.6
Kn1an8a12 Ln1a12 Ln8a12 0.6
Kn1an8a13 Ln1a13 Ln8a13 0.6
Kn1an8a14 Ln1a14 Ln8a14 0.6
Kn1an8a15 Ln1a15 Ln8a15 0.6
Kn1an8a16 Ln1a16 Ln8a16 0.6
Kn1an9a1 Ln1a1 Ln9a1 0.6
Kn1an9a2 Ln1a2 Ln9a2 0.6
Kn1an9a3 Ln1a3 Ln9a3 0.6
Kn1an9a4 Ln1a4 Ln9a4 0.6
Kn1an9a5 Ln1a5 Ln9a5 0.6
Kn1an9a6 Ln1a6 Ln9a6 0.6
Kn1an9a7 Ln1a7 Ln9a7 0.6
Kn1an9a8 Ln1a8 Ln9a8 0.6
Kn1an9a9 Ln1a9 Ln9a9 0.6
Kn1an9a10 Ln1a10 Ln9a10 0.6
Kn1an9a11 Ln1a11 Ln9a11 0.6
Kn1an9a12 Ln1a12 Ln9a12 0.6
Kn1an9a13 Ln1a13 Ln9a13 0.6
Kn1an9a14 Ln1a14 Ln9a14 0.6
Kn1an9a15 Ln1a15 Ln9a15 0.6
Kn1an9a16 Ln1a16 Ln9a16 0.6
Kn1an10a1 Ln1a1 Ln10a1 0.5
Kn1an10a2 Ln1a2 Ln10a2 0.5
Kn1an10a3 Ln1a3 Ln10a3 0.5
Kn1an10a4 Ln1a4 Ln10a4 0.5
Kn1an10a5 Ln1a5 Ln10a5 0.5
Kn1an10a6 Ln1a6 Ln10a6 0.5
Kn1an10a7 Ln1a7 Ln10a7 0.5
Kn1an10a8 Ln1a8 Ln10a8 0.5
Kn1an10a9 Ln1a9 Ln10a9 0.5
Kn1an10a10 Ln1a10 Ln10a10 0.5
Kn1an10a11 Ln1a11 Ln10a11 0.5
Kn1an10a12 Ln1a12 Ln10a12 0.5
Kn1an10a13 Ln1a13 Ln10a13 0.5
Kn1an10a14 Ln1a14 Ln10a14 0.5
Kn1an10a15 Ln1a15 Ln10a15 0.5
Kn1an10a16 Ln1a16 Ln10a16 0.5
Kn1an11a1 Ln1a1 Ln11a1 0.5
Kn1an11a2 Ln1a2 Ln11a2 0.5
Kn1an11a3 Ln1a3 Ln11a3 0.5
Kn1an11a4 Ln1a4 Ln11a4 0.5
Kn1an11a5 Ln1a5 Ln11a5 0.5
Kn1an11a6 Ln1a6 Ln11a6 0.5
Kn1an11a7 Ln1a7 Ln11a7 0.5
Kn1an11a8 Ln1a8 Ln11a8 0.5
Kn1an11a9 Ln1a9 Ln11a9 0.5
Kn1an11a10 Ln1a10 Ln11a10 0.5
Kn1an11a11 Ln1a11 Ln11a11 0.5
Kn1an11a12 Ln1a12 Ln11a12 0.5
Kn1an11a13 Ln1a13 Ln11a13 0.5
Kn1an11a14 Ln1a14 Ln11a14 0.5
Kn1an11a15 Ln1a15 Ln11a15 0.5
Kn1an11a16 Ln1a16 Ln11a16 0.5
Kn1an12a1 Ln1a1 Ln12a1 0.5
Kn1an12a2 Ln1a2 Ln12a2 0.5
Kn1an12a3 Ln1a3 Ln12a3 0.5
Kn1an12a4 Ln1a4 Ln12a4 0.5
Kn1an12a5 Ln1a5 Ln12a5 0.5
Kn1an12a6 Ln1a6 Ln12a6 0.5
Kn1an12a7 Ln1a7 Ln12a7 0.5
Kn1an12a8 Ln1a8 Ln12a8 0.5
Kn1an12a9 Ln1a9 Ln12a9 0.5
Kn1an12a10 Ln1a10 Ln12a10 0.5
Kn1an12a11 Ln1a11 Ln12a11 0.5
Kn1an12a12 Ln1a12 Ln12a12 0.5
Kn1an12a13 Ln1a13 Ln12a13 0.5
Kn1an12a14 Ln1a14 Ln12a14 0.5
Kn1an12a15 Ln1a15 Ln12a15 0.5
Kn1an12a16 Ln1a16 Ln12a16 0.5
Kn1anva1 Ln1a1 Lnva1 0.5
Kn1anva2 Ln1a2 Lnva2 0.5
Kn1anva3 Ln1a3 Lnva3 0.5
Kn1anva4 Ln1a4 Lnva4 0.5
Kn1anva5 Ln1a5 Lnva5 0.5
Kn1anva6 Ln1a6 Lnva6 0.5
Kn1anva7 Ln1a7 Lnva7 0.5
Kn1anva8 Ln1a8 Lnva8 0.5
Kn1anva9 Ln1a9 Lnva9 0.5
Kn1anva10 Ln1a10 Lnva10 0.5
Kn1anva11 Ln1a11 Lnva11 0.5
Kn1anva12 Ln1a12 Lnva12 0.5
Kn1anva13 Ln1a13 Lnva13 0.5
Kn1anva14 Ln1a14 Lnva14 0.5
Kn1anva15 Ln1a15 Lnva15 0.5
Kn1anva16 Ln1a16 Lnva16 0.5
Kn2an3a1 Ln2a1 Ln3a1 0.8
Kn2an3a2 Ln2a2 Ln3a2 0.8
Kn2an3a3 Ln2a3 Ln3a3 0.8
Kn2an3a4 Ln2a4 Ln3a4 0.8
Kn2an3a5 Ln2a5 Ln3a5 0.8
Kn2an3a6 Ln2a6 Ln3a6 0.8
Kn2an3a7 Ln2a7 Ln3a7 0.8
Kn2an3a8 Ln2a8 Ln3a8 0.8
Kn2an3a9 Ln2a9 Ln3a9 0.8
Kn2an3a10 Ln2a10 Ln3a10 0.8
Kn2an3a11 Ln2a11 Ln3a11 0.8
Kn2an3a12 Ln2a12 Ln3a12 0.8
Kn2an3a13 Ln2a13 Ln3a13 0.8
Kn2an3a14 Ln2a14 Ln3a14 0.8
Kn2an3a15 Ln2a15 Ln3a15 0.8
Kn2an3a16 Ln2a16 Ln3a16 0.8
Kn2an4a1 Ln2a1 Ln4a1 0.7
Kn2an4a2 Ln2a2 Ln4a2 0.7
Kn2an4a3 Ln2a3 Ln4a3 0.7
Kn2an4a4 Ln2a4 Ln4a4 0.7
Kn2an4a5 Ln2a5 Ln4a5 0.7
Kn2an4a6 Ln2a6 Ln4a6 0.7
Kn2an4a7 Ln2a7 Ln4a7 0.7
Kn2an4a8 Ln2a8 Ln4a8 0.7
Kn2an4a9 Ln2a9 Ln4a9 0.7
Kn2an4a10 Ln2a10 Ln4a10 0.7
Kn2an4a11 Ln2a11 Ln4a11 0.7
Kn2an4a12 Ln2a12 Ln4a12 0.7
Kn2an4a13 Ln2a13 Ln4a13 0.7
Kn2an4a14 Ln2a14 Ln4a14 0.7
Kn2an4a15 Ln2a15 Ln4a15 0.7
Kn2an4a16 Ln2a16 Ln4a16 0.7
Kn2an5a1 Ln2a1 Ln5a1 0.7
Kn2an5a2 Ln2a2 Ln5a2 0.7
Kn2an5a3 Ln2a3 Ln5a3 0.7
Kn2an5a4 Ln2a4 Ln5a4 0.7
Kn2an5a5 Ln2a5 Ln5a5 0.7
Kn2an5a6 Ln2a6 Ln5a6 0.7
Kn2an5a7 Ln2a7 Ln5a7 0.7
Kn2an5a8 Ln2a8 Ln5a8 0.7
Kn2an5a9 Ln2a9 Ln5a9 0.7
Kn2an5a10 Ln2a10 Ln5a10 0.7
Kn2an5a11 Ln2a11 Ln5a11 0.7
Kn2an5a12 Ln2a12 Ln5a12 0.7
Kn2an5a13 Ln2a13 Ln5a13 0.7
Kn2an5a14 Ln2a14 Ln5a14 0.7
Kn2an5a15 Ln2a15 Ln5a15 0.7
Kn2an5a16 Ln2a16 Ln5a16 0.7
Kn2an6a1 Ln2a1 Ln6a1 0.6
Kn2an6a2 Ln2a2 Ln6a2 0.6
Kn2an6a3 Ln2a3 Ln6a3 0.6
Kn2an6a4 Ln2a4 Ln6a4 0.6
Kn2an6a5 Ln2a5 Ln6a5 0.6
Kn2an6a6 Ln2a6 Ln6a6 0.6
Kn2an6a7 Ln2a7 Ln6a7 0.6
Kn2an6a8 Ln2a8 Ln6a8 0.6
Kn2an6a9 Ln2a9 Ln6a9 0.6
Kn2an6a10 Ln2a10 Ln6a10 0.6
Kn2an6a11 Ln2a11 Ln6a11 0.6
Kn2an6a12 Ln2a12 Ln6a12 0.6
Kn2an6a13 Ln2a13 Ln6a13 0.6
Kn2an6a14 Ln2a14 Ln6a14 0.6
Kn2an6a15 Ln2a15 Ln6a15 0.6
Kn2an6a16 Ln2a16 Ln6a16 0.6
Kn2an7a1 Ln2a1 Ln7a1 0.6
Kn2an7a2 Ln2a2 Ln7a2 0.6
Kn2an7a3 Ln2a3 Ln7a3 0.6
Kn2an7a4 Ln2a4 Ln7a4 0.6
Kn2an7a5 Ln2a5 Ln7a5 0.6
Kn2an7a6 Ln2a6 Ln7a6 0.6
Kn2an7a7 Ln2a7 Ln7a7 0.6
Kn2an7a8 Ln2a8 Ln7a8 0.6
Kn2an7a9 Ln2a9 Ln7a9 0.6
Kn2an7a10 Ln2a10 Ln7a10 0.6
Kn2an7a11 Ln2a11 Ln7a11 0.6
Kn2an7a12 Ln2a12 Ln7a12 0.6
Kn2an7a13 Ln2a13 Ln7a13 0.6
Kn2an7a14 Ln2a14 Ln7a14 0.6
Kn2an7a15 Ln2a15 Ln7a15 0.6
Kn2an7a16 Ln2a16 Ln7a16 0.6
Kn2an8a1 Ln2a1 Ln8a1 0.6
Kn2an8a2 Ln2a2 Ln8a2 0.6
Kn2an8a3 Ln2a3 Ln8a3 0.6
Kn2an8a4 Ln2a4 Ln8a4 0.6
Kn2an8a5 Ln2a5 Ln8a5 0.6
Kn2an8a6 Ln2a6 Ln8a6 0.6
Kn2an8a7 Ln2a7 Ln8a7 0.6
Kn2an8a8 Ln2a8 Ln8a8 0.6
Kn2an8a9 Ln2a9 Ln8a9 0.6
Kn2an8a10 Ln2a10 Ln8a10 0.6
Kn2an8a11 Ln2a11 Ln8a11 0.6
Kn2an8a12 Ln2a12 Ln8a12 0.6
Kn2an8a13 Ln2a13 Ln8a13 0.6
Kn2an8a14 Ln2a14 Ln8a14 0.6
Kn2an8a15 Ln2a15 Ln8a15 0.6
Kn2an8a16 Ln2a16 Ln8a16 0.6
Kn2an9a1 Ln2a1 Ln9a1 0.6
Kn2an9a2 Ln2a2 Ln9a2 0.6
Kn2an9a3 Ln2a3 Ln9a3 0.6
Kn2an9a4 Ln2a4 Ln9a4 0.6
Kn2an9a5 Ln2a5 Ln9a5 0.6
Kn2an9a6 Ln2a6 Ln9a6 0.6
Kn2an9a7 Ln2a7 Ln9a7 0.6
Kn2an9a8 Ln2a8 Ln9a8 0.6
Kn2an9a9 Ln2a9 Ln9a9 0.6
Kn2an9a10 Ln2a10 Ln9a10 0.6
Kn2an9a11 Ln2a11 Ln9a11 0.6
Kn2an9a12 Ln2a12 Ln9a12 0.6
Kn2an9a13 Ln2a13 Ln9a13 0.6
Kn2an9a14 Ln2a14 Ln9a14 0.6
Kn2an9a15 Ln2a15 Ln9a15 0.6
Kn2an9a16 Ln2a16 Ln9a16 0.6
Kn2an10a1 Ln2a1 Ln10a1 0.6
Kn2an10a2 Ln2a2 Ln10a2 0.6
Kn2an10a3 Ln2a3 Ln10a3 0.6
Kn2an10a4 Ln2a4 Ln10a4 0.6
Kn2an10a5 Ln2a5 Ln10a5 0.6
Kn2an10a6 Ln2a6 Ln10a6 0.6
Kn2an10a7 Ln2a7 Ln10a7 0.6
Kn2an10a8 Ln2a8 Ln10a8 0.6
Kn2an10a9 Ln2a9 Ln10a9 0.6
Kn2an10a10 Ln2a10 Ln10a10 0.6
Kn2an10a11 Ln2a11 Ln10a11 0.6
Kn2an10a12 Ln2a12 Ln10a12 0.6
Kn2an10a13 Ln2a13 Ln10a13 0.6
Kn2an10a14 Ln2a14 Ln10a14 0.6
Kn2an10a15 Ln2a15 Ln10a15 0.6
Kn2an10a16 Ln2a16 Ln10a16 0.6
Kn2an11a1 Ln2a1 Ln11a1 0.5
Kn2an11a2 Ln2a2 Ln11a2 0.5
Kn2an11a3 Ln2a3 Ln11a3 0.5
Kn2an11a4 Ln2a4 Ln11a4 0.5
Kn2an11a5 Ln2a5 Ln11a5 0.5
Kn2an11a6 Ln2a6 Ln11a6 0.5
Kn2an11a7 Ln2a7 Ln11a7 0.5
Kn2an11a8 Ln2a8 Ln11a8 0.5
Kn2an11a9 Ln2a9 Ln11a9 0.5
Kn2an11a10 Ln2a10 Ln11a10 0.5
Kn2an11a11 Ln2a11 Ln11a11 0.5
Kn2an11a12 Ln2a12 Ln11a12 0.5
Kn2an11a13 Ln2a13 Ln11a13 0.5
Kn2an11a14 Ln2a14 Ln11a14 0.5
Kn2an11a15 Ln2a15 Ln11a15 0.5
Kn2an11a16 Ln2a16 Ln11a16 0.5
Kn2an12a1 Ln2a1 Ln12a1 0.5
Kn2an12a2 Ln2a2 Ln12a2 0.5
Kn2an12a3 Ln2a3 Ln12a3 0.5
Kn2an12a4 Ln2a4 Ln12a4 0.5
Kn2an12a5 Ln2a5 Ln12a5 0.5
Kn2an12a6 Ln2a6 Ln12a6 0.5
Kn2an12a7 Ln2a7 Ln12a7 0.5
Kn2an12a8 Ln2a8 Ln12a8 0.5
Kn2an12a9 Ln2a9 Ln12a9 0.5
Kn2an12a10 Ln2a10 Ln12a10 0.5
Kn2an12a11 Ln2a11 Ln12a11 0.5
Kn2an12a12 Ln2a12 Ln12a12 0.5
Kn2an12a13 Ln2a13 Ln12a13 0.5
Kn2an12a14 Ln2a14 Ln12a14 0.5
Kn2an12a15 Ln2a15 Ln12a15 0.5
Kn2an12a16 Ln2a16 Ln12a16 0.5
Kn2anva1 Ln2a1 Lnva1 0.5
Kn2anva2 Ln2a2 Lnva2 0.5
Kn2anva3 Ln2a3 Lnva3 0.5
Kn2anva4 Ln2a4 Lnva4 0.5
Kn2anva5 Ln2a5 Lnva5 0.5
Kn2anva6 Ln2a6 Lnva6 0.5
Kn2anva7 Ln2a7 Lnva7 0.5
Kn2anva8 Ln2a8 Lnva8 0.5
Kn2anva9 Ln2a9 Lnva9 0.5
Kn2anva10 Ln2a10 Lnva10 0.5
Kn2anva11 Ln2a11 Lnva11 0.5
Kn2anva12 Ln2a12 Lnva12 0.5
Kn2anva13 Ln2a13 Lnva13 0.5
Kn2anva14 Ln2a14 Lnva14 0.5
Kn2anva15 Ln2a15 Lnva15 0.5
Kn2anva16 Ln2a16 Lnva16 0.5
Kn3an4a1 Ln3a1 Ln4a1 0.8
Kn3an4a2 Ln3a2 Ln4a2 0.8
Kn3an4a3 Ln3a3 Ln4a3 0.8
Kn3an4a4 Ln3a4 Ln4a4 0.8
Kn3an4a5 Ln3a5 Ln4a5 0.8
Kn3an4a6 Ln3a6 Ln4a6 0.8
Kn3an4a7 Ln3a7 Ln4a7 0.8
Kn3an4a8 Ln3a8 Ln4a8 0.8
Kn3an4a9 Ln3a9 Ln4a9 0.8
Kn3an4a10 Ln3a10 Ln4a10 0.8
Kn3an4a11 Ln3a11 Ln4a11 0.8
Kn3an4a12 Ln3a12 Ln4a12 0.8
Kn3an4a13 Ln3a13 Ln4a13 0.8
Kn3an4a14 Ln3a14 Ln4a14 0.8
Kn3an4a15 Ln3a15 Ln4a15 0.8
Kn3an4a16 Ln3a16 Ln4a16 0.8
Kn3an5a1 Ln3a1 Ln5a1 0.7
Kn3an5a2 Ln3a2 Ln5a2 0.7